SECRET_KEY=change-me
FLASK_DEBUG=false
FLASK_HOST=0.0.0.0
FLASK_PORT=5000
DB_HOST=db
DB_PORT=3306
DB_USER=cast_user
DB_PASSWORD=cast_password
DB_NAME=cast_project
PANEL_BASE_URL=/panel
PANEL_HOST=0.0.0.0
PANEL_PORT=5007
PANEL_ALLOW_ORIGINS=localhost:5000,127.0.0.1:5000,localhost,panel,example.com
MF2005_EXE=/usr/local/bin/mf2005
MT3DMS_EXE=/usr/local/bin/mt3dms
